/*-------------------------------------------------------------------------------------------------------------*\
|                                                                                                               | 
|                                                                                                               | 
|                                                                                                               | 
|                                                                                                               | 
\*-------------------------------------------------------------------------------------------------------------*/



FoamFile
{
	version 2.0;
	format binary;
	class volScalarField;
	location "";
	object nut;
}
/*---------------------------------------------------------------------------*/
/*---------------------------------------------------------------------------*/


dimensions [0 2 -1 0 0 0 0];

internalField uniform 0.;


boundaryField
{
	walls
	{
		type nutkWallFunction;
		Cmu 0.09;
		kappa	0.41;
		epsilon 9.8;
		value uniform 0.;
	}

	inlet
	{
		type calculated;
		value uniform 0.;
	}

	outlet
	{
		type calculated;
		value uniform 0.;
	}

	outlet_1
	{
		type nutkWallFunction;
		Cmu 0.09;
		kappa	0.41;
		epsilon 9.8;
		value uniform 0.;
	}

	outelet_2
	{
		type nutkWallFunction;
		Cmu 0.09;
		kappa	0.41;
		epsilon 9.8;
		value uniform 0.;
	}

	outlet_3
	{
		type nutkWallFunction;
		Cmu 0.09;
		kappa	0.41;
		epsilon 9.8;
		value uniform 0.;
	}

	outlet_5
	{
		type nutkWallFunction;
		Cmu 0.09;
		kappa	0.41;
		epsilon 9.8;
		value uniform 0.;
	}

	outlet_4
	{
		type nutkWallFunction;
		Cmu 0.09;
		kappa	0.41;
		epsilon 9.8;
		value uniform 0.;
	}

	outlet_6
	{
		type nutkWallFunction;
		Cmu 0.09;
		kappa	0.41;
		epsilon 9.8;
		value uniform 0.;
	}


}
