/*-------------------------------------------------------------------------------------------------------------*\
|                                                                                                               | 
|                                                                                                               | 
|                                                                                                               | 
|                                                                                                               | 
\*-------------------------------------------------------------------------------------------------------------*/



FoamFile
{
	version 2.0;
	format binary;
	class volScalarField;
	location "";
	object p;
}
/*---------------------------------------------------------------------------*/
/*---------------------------------------------------------------------------*/


dimensions [0 2 -2 0 0 0 0];

internalField uniform 0.;


boundaryField
{
	walls
	{
		type zeroGradient;
	}

	inlet
	{
		type zeroGradient;
	}

	outlet
	{
		type fixedValue;
		value uniform 0.;
	}

	outlet_1
	{
		type zeroGradient;
	}

	outelet_2
	{
		type zeroGradient;
	}

	outlet_3
	{
		type zeroGradient;
	}

	outlet_5
	{
		type zeroGradient;
	}

	outlet_4
	{
		type zeroGradient;
	}

	outlet_6
	{
		type zeroGradient;
	}


}
