/*-------------------------------------------------------------------------------------------------------------*\
|                                                                                                               | 
|                                                                                                               | 
|                                                                                                               | 
|                                                                                                               | 
\*-------------------------------------------------------------------------------------------------------------*/



FoamFile
{
	version 2.0;
	format binary;
	class dictionary;
	location "";
	object fvSolution;
}
/*---------------------------------------------------------------------------*/
/*---------------------------------------------------------------------------*/

solvers
{
 "p.*" 
{
        solver           GAMG;
        tolerance        1e-10;
        relTol           0.05;
        smoother         GaussSeidel;
        nPreSweeps       0;
        nPostSweeps      2;
        cacheAgglomeration on;
        agglomerator     faceAreaPair;
        nCellsInCoarsestLevel 10;
        mergeLevels      1;
        maxIter         15;
}

"U.*"
{
        solver           smoothSolver;
        smoother         GaussSeidel;
        tolerance        1e-10;
        relTol           0.1;
        nSweeps          1;
}

Phi
{
  $p;
}

"(k|epsilon|omega|nuTilda|kFinal|epsilonFinal|omegaFinal)"
{
        solver           smoothSolver;
        smoother         GaussSeidel;
        tolerance        1e-10;
        relTol           0.1;
        nSweeps          1;
}
}

PIMPLE
{
     correctPhi          yes;
     nOuterCorrectors    2;
     nCorrectors         2;
    nNonOrthogonalCorrectors 4;
} 

    residualControl
    {
        p               1e-4;
        U               1e-3;
        k               1e-3;
        omega           1e-3;
	nuTilda         1e-3;
    }
potentialFlow
{
    nNonOrthogonalCorrectors 50;
}

relaxationFactors
{
    fields
    {
        p               0.3;
    }
    equations
    {
        U               0.7;
        k               0.7;
        omega           0.7;
	 epsilon           0.7;
	nuTilda         0.7;
    }
}

cache
{
    grad(U);
}

